ptf ~
# Well file for MODFLOW, generated by Flopy.
         1         0
         1         0
        1         1        10  ~ wel_0 ~
         1         0
        1         1        10  ~ wel_1 ~
